FoamFile
{
    version     2.0;
    format      ascii;
    class       dictionary;
    location    "system";
    object      decomposeParDict;
}

numberOfSubdomains 36;

method             simple;

simpleCoeffs
{
	n	(9 2 2);
	delta	0.001;
}
